data_none

_audit_creation_method generated by ABACUS

_cell_length_a 10.0666
_cell_length_b 9.96834
_cell_length_c 10.4155
_cell_angle_alpha 90
_cell_angle_beta 90
_cell_angle_gamma 90

loop_
_atom_site_label
_atom_site_fract_x
_atom_site_fract_y
_atom_site_fract_z
Hf 0.123141 0.115511 0.267084
Hf 0.123141 0.115511 0.767084
Hf 0.623141 0.115511 0.267084
Hf 0.623141 0.115511 0.767084
Hf 0.376859 0.884489 0.232916
Hf 0.376859 0.884489 0.732916
Hf 0.876859 0.884489 0.232916
Hf 0.876859 0.884489 0.732916
Hf 0.126859 0.884489 0.0170841
Hf 0.126859 0.884489 0.517084
Hf 0.626859 0.884489 0.0170841
Hf 0.626859 0.884489 0.517084
Hf 0.373141 0.115511 0.482916
Hf 0.373141 0.115511 0.982916
Hf 0.873141 0.115511 0.482916
Hf 0.873141 0.115511 0.982916
Hf 0.373141 0.384489 0.232916
Hf 0.373141 0.384489 0.732916
Hf 0.873141 0.384489 0.232916
Hf 0.873141 0.384489 0.732916
Hf 0.126859 0.615511 0.267084
Hf 0.126859 0.615511 0.767084
Hf 0.626859 0.615511 0.267084
Hf 0.626859 0.615511 0.767084
Hf 0.376859 0.615511 0.482916
Hf 0.376859 0.615511 0.982916
Hf 0.876859 0.615511 0.482916
Hf 0.876859 0.615511 0.982916
Hf 0.123141 0.384489 0.0170841
Hf 0.123141 0.384489 0.517084
Hf 0.623141 0.384489 0.0170841
Hf 0.623141 0.384489 0.517084
O 0.0014947 0.0226326 0.119181
O 0.0014947 0.0226326 0.619181
O 0.501495 0.0226326 0.119181
O 0.501495 0.0226326 0.619181
O 0.498505 0.977367 0.380819
O 0.498505 0.977367 0.880819
O 0.998505 0.977367 0.380819
O 0.998505 0.977367 0.880819
O 0.248505 0.977367 0.369181
O 0.248505 0.977367 0.869181
O 0.748505 0.977367 0.369181
O 0.748505 0.977367 0.869181
O 0.251495 0.0226326 0.130819
O 0.251495 0.0226326 0.630819
O 0.751495 0.0226326 0.130819
O 0.751495 0.0226326 0.630819
O 0.251495 0.477367 0.380819
O 0.251495 0.477367 0.880819
O 0.751495 0.477367 0.380819
O 0.751495 0.477367 0.880819
O 0.248505 0.522633 0.119181
O 0.248505 0.522633 0.619181
O 0.748505 0.522633 0.119181
O 0.748505 0.522633 0.619181
O 0.498505 0.522633 0.130819
O 0.498505 0.522633 0.630819
O 0.998505 0.522633 0.130819
O 0.998505 0.522633 0.630819
O 0.0014947 0.477367 0.369181
O 0.0014947 0.477367 0.869181
O 0.501495 0.477367 0.369181
O 0.501495 0.477367 0.869181
O 0.0644985 0.708933 0.437907
O 0.0644985 0.708933 0.937907
O 0.564498 0.708933 0.437907
O 0.564498 0.708933 0.937907
O 0.435502 0.291067 0.0620933
O 0.435502 0.291067 0.562093
O 0.935502 0.291067 0.0620933
O 0.935502 0.291067 0.562093
O 0.185502 0.291067 0.187907
O 0.185502 0.291067 0.687907
O 0.685502 0.291067 0.187907
O 0.685502 0.291067 0.687907
O 0.314498 0.708933 0.312093
O 0.314498 0.708933 0.812093
O 0.814498 0.708933 0.312093
O 0.814498 0.708933 0.812093
O 0.314498 0.791067 0.0620933
O 0.314498 0.791067 0.562093
O 0.814498 0.791067 0.0620933
O 0.814498 0.791067 0.562093
O 0.185502 0.208933 0.437907
O 0.185502 0.208933 0.937907
O 0.685502 0.208933 0.437907
O 0.685502 0.208933 0.937907
O 0.435502 0.208933 0.312093
O 0.435502 0.208933 0.812093
O 0.935502 0.208933 0.312093
O 0.935502 0.208933 0.812093
O 0.0644985 0.791067 0.187907
O 0.0644985 0.791067 0.687907
O 0.564498 0.791067 0.187907
O 0.564498 0.791067 0.687907
