data_none

_audit_creation_method generated by ABACUS

_cell_length_a 20.0764
_cell_length_b 20.0764
_cell_length_c 30
_cell_angle_alpha 90
_cell_angle_beta 90
_cell_angle_gamma 120

loop_
_atom_site_label
_atom_site_fract_x
_atom_site_fract_y
_atom_site_fract_z
Ti 0.587569 0.543015 0.546581
N 0.52868 0.576747 0.514246
N 0.0435449 0.0669909 0.503498
N 0.167716 0.103106 0.4972
N 0.275423 0.0630306 0.500321
N 0.425473 0.0867311 0.495978
N 0.557853 0.0835362 0.504251
N 0.659812 0.0924444 0.511361
N 0.767803 0.0968114 0.501274
N 0.9311 0.105919 0.493468
N 0.0439532 0.193975 0.496504
N 0.163251 0.20708 0.500862
N 0.292799 0.20594 0.494543
N 0.403085 0.199803 0.492511
N 0.540943 0.210028 0.502841
N 0.670839 0.212253 0.504463
N 0.793645 0.205725 0.501455
N 0.913628 0.206033 0.501858
N 0.0519705 0.334451 0.50097
N 0.144181 0.330243 0.500285
N 0.284237 0.335436 0.499046
N 0.415696 0.331682 0.494973
N 0.550761 0.334131 0.494472
N 0.661855 0.331822 0.503671
N 0.777369 0.319748 0.492466
N 0.910132 0.335387 0.495336
N 0.0419219 0.451374 0.500121
N 0.172779 0.448282 0.498255
N 0.303377 0.457885 0.499662
N 0.411265 0.454595 0.507921
N 0.532398 0.444696 0.513498
N 0.670833 0.465874 0.501164
N 0.785071 0.444539 0.496198
N 0.921255 0.474267 0.49482
N 0.0426407 0.589148 0.501507
N 0.152878 0.559009 0.502076
N 0.284294 0.567711 0.497472
N 0.425047 0.586216 0.494665
N 0.677889 0.589558 0.518743
N 0.807388 0.592457 0.499277
N 0.925662 0.586456 0.505235
N 0.0261587 0.702033 0.493986
N 0.168189 0.715679 0.501709
N 0.285849 0.712921 0.495379
N 0.414739 0.724581 0.49407
N 0.536512 0.716012 0.497064
N 0.654142 0.702773 0.510401
N 0.790597 0.719029 0.499087
N 0.910772 0.70505 0.500094
N 0.0284987 0.795753 0.492536
N 0.173632 0.840538 0.501458
N 0.292679 0.831159 0.502287
N 0.41983 0.833402 0.503337
N 0.557571 0.840977 0.500013
N 0.668651 0.825216 0.502891
N 0.822222 0.854392 0.497015
N 0.923106 0.830248 0.493549
N 0.0279888 0.955935 0.497358
N 0.175392 0.97375 0.496923
N 0.314738 0.955959 0.506087
N 0.416479 0.961582 0.498065
N 0.521975 0.950733 0.502986
N 0.663081 0.958933 0.502311
N 0.789322 0.944418 0.496451
N 0.922654 0.978502 0.497327
B 0.0921943 0.0394361 0.500808
B 0.198504 0.0419132 0.501317
B 0.329227 0.0292892 0.492712
B 0.473212 0.0457258 0.508502
B 0.585792 0.0449429 0.491256
B 0.692289 0.0450243 0.495387
B 0.840389 0.032017 0.506103
B 0.9755 0.0586622 0.504098
B 0.0836496 0.152065 0.491645
B 0.217235 0.195734 0.498257
B 0.324551 0.14759 0.493917
B 0.458247 0.167881 0.497941
B 0.590889 0.172663 0.491784
B 0.705516 0.166231 0.501221
B 0.835697 0.160335 0.494165
B 0.956753 0.164202 0.512482
B 0.066486 0.27511 0.497555
B 0.200093 0.295941 0.489496
B 0.32375 0.290141 0.496188
B 0.453221 0.283045 0.495477
B 0.577091 0.286197 0.488531
B 0.70791 0.294341 0.499322
B 0.831295 0.28011 0.506337
B 0.970436 0.301004 0.495867
B 0.0851472 0.413418 0.494337
B 0.20816 0.399401 0.499027
B 0.338796 0.427393 0.496428
B 0.454787 0.404425 0.498361
B 0.589024 0.406447 0.511711
B 0.713759 0.40987 0.505163
B 0.817707 0.405123 0.502738
B 0.96374 0.417143 0.503706
B 0.0730736 0.542669 0.497036
B 0.204359 0.520848 0.501178
B 0.343709 0.554389 0.490864
B 0.441078 0.534648 0.512741
B 0.716191 0.543836 0.512047
B 0.850278 0.549413 0.503008
B 0.972142 0.55652 0.487758
B 0.0878405 0.67206 0.508149
B 0.211475 0.679069 0.493241
B 0.327032 0.670973 0.500494
B 0.444371 0.672548 0.505117
B 0.577346 0.665204 0.504373
B 0.704733 0.669024 0.506103
B 0.829711 0.66684 0.493822
B 0.94056 0.664941 0.494156
B 0.0828009 0.788177 0.501253
B 0.211959 0.796082 0.497268
B 0.35033 0.807742 0.501545
B 0.464973 0.800561 0.493163
B 0.588021 0.793322 0.500054
B 0.722636 0.791956 0.512245
B 0.839788 0.801836 0.505793
B 0.958031 0.784964 0.497486
B 0.0917296 0.944605 0.511692
B 0.213294 0.923537 0.499371
B 0.338519 0.91499 0.493669
B 0.45002 0.919108 0.496915
B 0.576583 0.910455 0.506601
B 0.702783 0.916369 0.49409
B 0.846081 0.91666 0.512881
B 0.951941 0.919672 0.488577
